test/test_files/input_tests/raw_transformer_magnetizing.raw
0, 100.00, 33, 0, 1, 60.00
GridDyn RAW transformer CM=1 and CM=2 magnetizing regression
Both magnetizing encodings should become first-winding terminal admittances.
    1,'SOURCE      ', 230.0000,3,     1,     1,   1,1.00000,   0.0000,1.10000,0.90000,1.10000,0.90000
    2,'LOAD CM1    ', 230.0000,1,     1,     1,   1,0.99000,  -1.0000,1.10000,0.90000,1.10000,0.90000
    3,'LOAD CM2    ', 230.0000,1,     1,     1,   1,0.99000,  -2.0000,1.10000,0.90000,1.10000,0.90000
0 / END OF BUS DATA, BEGIN LOAD DATA
    2,'1 ',1,   1,   1,      10.000,       2.000,     0.000,     0.000,     0.000,     0.000,   1,1
    3,'1 ',1,   1,   1,      10.000,       2.000,     0.000,     0.000,     0.000,     0.000,   1,1
0 / END OF LOAD DATA, BEGIN FIXED SHUNT DATA
0 / END OF FIXED SHUNT DATA, BEGIN GENERATOR DATA
    1,'1 ',30.000,0.000,100.000,-100.000,1.00000,0,100.000,0.00000,0.10000,0.00000,0.00000,1.00000,1,100.0,100.000,0.000,1,1.0000
0 / END OF GENERATOR DATA, BEGIN BRANCH DATA
0 / END OF BRANCH DATA, BEGIN TRANSFORMER DATA
    1,    2,    0,'CM1',1,1,1, 0.005000, -0.006000,2,'CM1',1,1,1.0000,0,1.0000,0,1.0000,0,1.0000
 0.010000, 0.100000, 100.00
 1.000000,230.000, 0.000, 100.00, 100.00, 100.00, 0, 0, 1.10000, 0.90000, 1.10000, 0.90000, 33, 0, 0.00000, 0.00000, 0.00000
 1.000000,230.000
    1,    3,    0,'CM2',1,1,2, 100000.0, 0.010000,2,'CM2',1,1,1.0000,0,1.0000,0,1.0000,0,1.0000
 0.010000, 0.100000, 100.00
 1.000000,230.000, 0.000, 100.00, 100.00, 100.00, 0, 0, 1.10000, 0.90000, 1.10000, 0.90000, 33, 0, 0.00000, 0.00000, 0.00000
 1.000000,230.000
0 / END OF TRANSFORMER DATA, BEGIN AREA DATA
0 / END OF AREA DATA, BEGIN TWO-TERMINAL DC DATA
0 / END OF TWO-TERMINAL DC DATA, BEGIN VSC DC LINE DATA
0 / END OF VSC DC LINE DATA, BEGIN IMPEDANCE CORRECTION DATA
0 / END OF IMPEDANCE CORRECTION DATA, BEGIN MULTI-TERMINAL DC DATA
0 / END OF MULTI-TERMINAL DC DATA, BEGIN MULTI-SECTION LINE DATA
0 / END OF MULTI-SECTION LINE DATA, BEGIN ZONE DATA
0 / END OF ZONE DATA, BEGIN INTER-AREA TRANSFER DATA
0 / END OF INTER-AREA TRANSFER DATA, BEGIN OWNER DATA
0 / END OF OWNER DATA, BEGIN FACTS CONTROL DEVICE DATA
0 / END OF FACTS CONTROL DEVICE DATA, BEGIN SWITCHED SHUNT DATA
0 / END OF SWITCHED SHUNT DATA, BEGIN GNE DEVICE DATA
0 / END OF GNE DEVICE DATA
Q
